examples/123Bus/ieee123_VLN_Node.Txt

LINE-GROUND and LINE-LINE VOLTAGES BY BUS & NODE

Bus      Node    VLN (kV)   Angle      pu     Base kV    Node-Node   VLL (kV)  Angle      pu

150 .... 1       2.4018 /_    0.0         1     4.160        1-2       4.16 /_   30.0         1
   -     2       2.4018 /_ -120.0         1     4.160        2-3       4.16 /_  -90.0         1
   -     3       2.4018 /_  120.0         1     4.160        3-1       4.16 /_  150.0         1
150R ... 1       2.4018 /_    0.0         1     4.160        1-2       4.16 /_   30.0         1
   -     2       2.4018 /_ -120.0         1     4.160        2-3       4.16 /_  -90.0         1
   -     3       2.4018 /_  120.0         1     4.160        3-1       4.16 /_  150.0         1
149 .... 1       2.4018 /_    0.0         1     4.160        1-2       4.16 /_   30.0         1
   -     2       2.4018 /_ -120.0         1     4.160        2-3       4.16 /_  -90.0         1
   -     3       2.4018 /_  120.0         1     4.160        3-1       4.16 /_  150.0         1
1 ...... 1       2.4018 /_    0.0         1     4.160        1-2       4.16 /_   30.0         1
   -     2       2.4018 /_ -120.0         1     4.160        2-3       4.16 /_  -90.0         1
   -     3       2.4018 /_  120.0         1     4.160        3-1       4.16 /_  150.0         1
2 ...... 2       2.4018 /_ -120.0         1     4.160
3 ...... 3       2.4018 /_  120.0         1     4.160
7 ...... 1       2.4018 /_    0.0         1     4.160        1-2       4.16 /_   30.0         1
   -     2       2.4018 /_ -120.0         1     4.160        2-3       4.16 /_  -90.0         1
   -     3       2.4018 /_  120.0         1     4.160        3-1       4.16 /_  150.0         1
4 ...... 3       2.4018 /_  120.0         1     4.160
5 ...... 3       2.4018 /_  120.0         1     4.160
6 ...... 3       2.4018 /_  120.0         1     4.160
8 ...... 1       2.4018 /_    0.0         1     4.160        1-2       4.16 /_   30.0         1
   -     2       2.4018 /_ -120.0         1     4.160        2-3       4.16 /_  -90.0         1
   -     3       2.4018 /_  120.0         1     4.160        3-1       4.16 /_  150.0         1
12 ..... 2       2.4018 /_ -120.0         1     4.160
9 ...... 1       2.4018 /_    0.0         1     4.160
13 ..... 1       2.4018 /_    0.0         1     4.160        1-2       4.16 /_   30.0         1
   -     2       2.4018 /_ -120.0         1     4.160        2-3       4.16 /_  -90.0         1
   -     3       2.4018 /_  120.0         1     4.160        3-1       4.16 /_  150.0         1
9R ..... 1       2.4018 /_    0.0         1     4.160
14 ..... 1       2.4018 /_    0.0         1     4.160
34 ..... 3       2.4018 /_  120.0         1     4.160
18 ..... 1       2.4018 /_    0.0         1     4.160        1-2       4.16 /_   30.0         1
   -     2       2.4018 /_ -120.0         1     4.160        2-3       4.16 /_  -90.0         1
   -     3       2.4018 /_  120.0         1     4.160        3-1       4.16 /_  150.0         1
11 ..... 1       2.4018 /_    0.0         1     4.160
10 ..... 1       2.4018 /_    0.0         1     4.160
15 ..... 3       2.4018 /_  120.0         1     4.160
16 ..... 3       2.4018 /_  120.0         1     4.160
17 ..... 3       2.4018 /_  120.0         1     4.160
19 ..... 1       2.4018 /_    0.0         1     4.160
21 ..... 1       2.4018 /_    0.0         1     4.160        1-2       4.16 /_   30.0         1
   -     2       2.4018 /_ -120.0         1     4.160        2-3       4.16 /_  -90.0         1
   -     3       2.4018 /_  120.0         1     4.160        3-1       4.16 /_  150.0         1
20 ..... 1       2.4018 /_    0.0         1     4.160
22 ..... 2       2.4018 /_ -120.0         1     4.160
23 ..... 1       2.4018 /_    0.0         1     4.160        1-2       4.16 /_   30.0         1
   -     2       2.4018 /_ -120.0         1     4.160        2-3       4.16 /_  -90.0         1
   -     3       2.4018 /_  120.0         1     4.160        3-1       4.16 /_  150.0         1
24 ..... 3       2.4018 /_  120.0         1     4.160
25 ..... 1       2.4018 /_    0.0         1     4.160        1-2       4.16 /_   30.0         1
   -     2       2.4018 /_ -120.0         1     4.160        2-3       4.16 /_  -90.0         1
   -     3       2.4018 /_  120.0         1     4.160        3-1       4.16 /_  150.0         1
25R .... 1       2.4018 /_    0.0         1     4.160
   -     3       2.4018 /_  120.0         1     4.160        3-1       4.16 /_  150.0         1
26 ..... 1       2.4018 /_    0.0         1     4.160
   -     3       2.4018 /_  120.0         1     4.160        3-1       4.16 /_  150.0         1
28 ..... 1       2.4018 /_    0.0         1     4.160        1-2       4.16 /_   30.0         1
   -     2       2.4018 /_ -120.0         1     4.160        2-3       4.16 /_  -90.0         1
   -     3       2.4018 /_  120.0         1     4.160        3-1       4.16 /_  150.0         1
27 ..... 1       2.4018 /_    0.0         1     4.160
   -     3       2.4018 /_  120.0         1     4.160        3-1       4.16 /_  150.0         1
31 ..... 3       2.4018 /_  120.0         1     4.160
33 ..... 1       2.4018 /_    0.0         1     4.160
29 ..... 1       2.4018 /_    0.0         1     4.160        1-2       4.16 /_   30.0         1
   -     2       2.4018 /_ -120.0         1     4.160        2-3       4.16 /_  -90.0         1
   -     3       2.4018 /_  120.0         1     4.160        3-1       4.16 /_  150.0         1
30 ..... 1       2.4018 /_    0.0         1     4.160        1-2       4.16 /_   30.0         1
   -     2       2.4018 /_ -120.0         1     4.160        2-3       4.16 /_  -90.0         1
   -     3       2.4018 /_  120.0         1     4.160        3-1       4.16 /_  150.0         1
250 .... 1       2.4018 /_    0.0         1     4.160        1-2       4.16 /_   30.0         1
   -     2       2.4018 /_ -120.0         1     4.160        2-3       4.16 /_  -90.0         1
   -     3       2.4018 /_  120.0         1     4.160        3-1       4.16 /_  150.0         1
32 ..... 3       2.4018 /_  120.0         1     4.160
35 ..... 1       2.4018 /_    0.0         1     4.160        1-2       4.16 /_   30.0         1
   -     2       2.4018 /_ -120.0         1     4.160        2-3       4.16 /_  -90.0         1
   -     3       2.4018 /_  120.0         1     4.160        3-1       4.16 /_  150.0         1
36 ..... 1       2.4018 /_    0.0         1     4.160        1-2       4.16 /_   30.0         1
   -     2       2.4018 /_ -120.0         1     4.160
40 ..... 1       2.4018 /_    0.0         1     4.160        1-2       4.16 /_   30.0         1
   -     2       2.4018 /_ -120.0         1     4.160        2-3       4.16 /_  -90.0         1
   -     3       2.4018 /_  120.0         1     4.160        3-1       4.16 /_  150.0         1
37 ..... 1       2.4018 /_    0.0         1     4.160
38 ..... 2       2.4018 /_ -120.0         1     4.160
39 ..... 2       2.4018 /_ -120.0         1     4.160
41 ..... 3       2.4018 /_  120.0         1     4.160
42 ..... 1       2.4018 /_    0.0         1     4.160        1-2       4.16 /_   30.0         1
   -     2       2.4018 /_ -120.0         1     4.160        2-3       4.16 /_  -90.0         1
   -     3       2.4018 /_  120.0         1     4.160        3-1       4.16 /_  150.0         1
43 ..... 2       2.4018 /_ -120.0         1     4.160
44 ..... 1       2.4018 /_    0.0         1     4.160        1-2       4.16 /_   30.0         1
   -     2       2.4018 /_ -120.0         1     4.160        2-3       4.16 /_  -90.0         1
   -     3       2.4018 /_  120.0         1     4.160        3-1       4.16 /_  150.0         1
45 ..... 1       2.4018 /_    0.0         1     4.160
47 ..... 1       2.4018 /_    0.0         1     4.160        1-2       4.16 /_   30.0         1
   -     2       2.4018 /_ -120.0         1     4.160        2-3       4.16 /_  -90.0         1
   -     3       2.4018 /_  120.0         1     4.160        3-1       4.16 /_  150.0         1
46 ..... 1       2.4018 /_    0.0         1     4.160
48 ..... 1       2.4018 /_    0.0         1     4.160        1-2       4.16 /_   30.0         1
   -     2       2.4018 /_ -120.0         1     4.160        2-3       4.16 /_  -90.0         1
   -     3       2.4018 /_  120.0         1     4.160        3-1       4.16 /_  150.0         1
49 ..... 1       2.4018 /_    0.0         1     4.160        1-2       4.16 /_   30.0         1
   -     2       2.4018 /_ -120.0         1     4.160        2-3       4.16 /_  -90.0         1
   -     3       2.4018 /_  120.0         1     4.160        3-1       4.16 /_  150.0         1
50 ..... 1       2.4018 /_    0.0         1     4.160        1-2       4.16 /_   30.0         1
   -     2       2.4018 /_ -120.0         1     4.160        2-3       4.16 /_  -90.0         1
   -     3       2.4018 /_  120.0         1     4.160        3-1       4.16 /_  150.0         1
51 ..... 1       2.4018 /_    0.0         1     4.160        1-2       4.16 /_   30.0         1
   -     2       2.4018 /_ -120.0         1     4.160        2-3       4.16 /_  -90.0         1
   -     3       2.4018 /_  120.0         1     4.160        3-1       4.16 /_  150.0         1
151 .... 1       2.4018 /_    0.0         1     4.160        1-2       4.16 /_   30.0         1
   -     2       2.4018 /_ -120.0         1     4.160        2-3       4.16 /_  -90.0         1
   -     3       2.4018 /_  120.0         1     4.160        3-1       4.16 /_  150.0         1
52 ..... 1       2.4018 /_    0.0         1     4.160        1-2       4.16 /_   30.0         1
   -     2       2.4018 /_ -120.0         1     4.160        2-3       4.16 /_  -90.0         1
   -     3       2.4018 /_  120.0         1     4.160        3-1       4.16 /_  150.0         1
53 ..... 1       2.4018 /_    0.0         1     4.160        1-2       4.16 /_   30.0         1
   -     2       2.4018 /_ -120.0         1     4.160        2-3       4.16 /_  -90.0         1
   -     3       2.4018 /_  120.0         1     4.160        3-1       4.16 /_  150.0         1
54 ..... 1       2.4018 /_    0.0         1     4.160        1-2       4.16 /_   30.0         1
   -     2       2.4018 /_ -120.0         1     4.160        2-3       4.16 /_  -90.0         1
   -     3       2.4018 /_  120.0         1     4.160        3-1       4.16 /_  150.0         1
55 ..... 1       2.4018 /_    0.0         1     4.160        1-2       4.16 /_   30.0         1
   -     2       2.4018 /_ -120.0         1     4.160        2-3       4.16 /_  -90.0         1
   -     3       2.4018 /_  120.0         1     4.160        3-1       4.16 /_  150.0         1
57 ..... 1       2.4018 /_    0.0         1     4.160        1-2       4.16 /_   30.0         1
   -     2       2.4018 /_ -120.0         1     4.160        2-3       4.16 /_  -90.0         1
   -     3       2.4018 /_  120.0         1     4.160        3-1       4.16 /_  150.0         1
56 ..... 1       2.4018 /_    0.0         1     4.160        1-2       4.16 /_   30.0         1
   -     2       2.4018 /_ -120.0         1     4.160        2-3       4.16 /_  -90.0         1
   -     3       2.4018 /_  120.0         1     4.160        3-1       4.16 /_  150.0         1
58 ..... 2       2.4018 /_ -120.0         1     4.160
60 ..... 1       2.4018 /_    0.0         1     4.160        1-2       4.16 /_   30.0         1
   -     2       2.4018 /_ -120.0         1     4.160        2-3       4.16 /_  -90.0         1
   -     3       2.4018 /_  120.0         1     4.160        3-1       4.16 /_  150.0         1
59 ..... 2       2.4018 /_ -120.0         1     4.160
61 ..... 1       2.4018 /_    0.0         1     4.160        1-2       4.16 /_   30.0         1
   -     2       2.4018 /_ -120.0         1     4.160        2-3       4.16 /_  -90.0         1
   -     3       2.4018 /_  120.0         1     4.160        3-1       4.16 /_  150.0         1
62 ..... 1       2.4018 /_    0.0         1     4.160        1-2       4.16 /_   30.0         1
   -     2       2.4018 /_ -120.0         1     4.160        2-3       4.16 /_  -90.0         1
   -     3       2.4018 /_  120.0         1     4.160        3-1       4.16 /_  150.0         1
63 ..... 1       2.4018 /_    0.0         1     4.160        1-2       4.16 /_   30.0         1
   -     2       2.4018 /_ -120.0         1     4.160        2-3       4.16 /_  -90.0         1
   -     3       2.4018 /_  120.0         1     4.160        3-1       4.16 /_  150.0         1
64 ..... 1       2.4018 /_    0.0         1     4.160        1-2       4.16 /_   30.0         1
   -     2       2.4018 /_ -120.0         1     4.160        2-3       4.16 /_  -90.0         1
   -     3       2.4018 /_  120.0         1     4.160        3-1       4.16 /_  150.0         1
65 ..... 1       2.4018 /_    0.0         1     4.160        1-2       4.16 /_   30.0         1
   -     2       2.4018 /_ -120.0         1     4.160        2-3       4.16 /_  -90.0         1
   -     3       2.4018 /_  120.0         1     4.160        3-1       4.16 /_  150.0         1
66 ..... 1       2.4018 /_    0.0         1     4.160        1-2       4.16 /_   30.0         1
   -     2       2.4018 /_ -120.0         1     4.160        2-3       4.16 /_  -90.0         1
   -     3       2.4018 /_  120.0         1     4.160        3-1       4.16 /_  150.0         1
67 ..... 1       2.4018 /_    0.0         1     4.160        1-2       4.16 /_   30.0         1
   -     2       2.4018 /_ -120.0         1     4.160        2-3       4.16 /_  -90.0         1
   -     3       2.4018 /_  120.0         1     4.160        3-1       4.16 /_  150.0         1
68 ..... 1       2.4018 /_    0.0         1     4.160
72 ..... 1       2.4018 /_    0.0         1     4.160        1-2       4.16 /_   30.0         1
   -     2       2.4018 /_ -120.0         1     4.160        2-3       4.16 /_  -90.0         1
   -     3       2.4018 /_  120.0         1     4.160        3-1       4.16 /_  150.0         1
97 ..... 1       2.4018 /_    0.0         1     4.160        1-2       4.16 /_   30.0         1
   -     2       2.4018 /_ -120.0         1     4.160        2-3       4.16 /_  -90.0         1
   -     3       2.4018 /_  120.0         1     4.160        3-1       4.16 /_  150.0         1
69 ..... 1       2.4018 /_    0.0         1     4.160
70 ..... 1       2.4018 /_    0.0         1     4.160
71 ..... 1       2.4018 /_    0.0         1     4.160
73 ..... 3       2.4018 /_  120.0         1     4.160
76 ..... 1       2.4018 /_    0.0         1     4.160        1-2       4.16 /_   30.0         1
   -     2       2.4018 /_ -120.0         1     4.160        2-3       4.16 /_  -90.0         1
   -     3       2.4018 /_  120.0         1     4.160        3-1       4.16 /_  150.0         1
74 ..... 3       2.4018 /_  120.0         1     4.160
75 ..... 3       2.4018 /_  120.0         1     4.160
77 ..... 1       2.4018 /_    0.0         1     4.160        1-2       4.16 /_   30.0         1
   -     2       2.4018 /_ -120.0         1     4.160        2-3       4.16 /_  -90.0         1
   -     3       2.4018 /_  120.0         1     4.160        3-1       4.16 /_  150.0         1
86 ..... 1       2.4018 /_    0.0         1     4.160        1-2       4.16 /_   30.0         1
   -     2       2.4018 /_ -120.0         1     4.160        2-3       4.16 /_  -90.0         1
   -     3       2.4018 /_  120.0         1     4.160        3-1       4.16 /_  150.0         1
78 ..... 1       2.4018 /_    0.0         1     4.160        1-2       4.16 /_   30.0         1
   -     2       2.4018 /_ -120.0         1     4.160        2-3       4.16 /_  -90.0         1
   -     3       2.4018 /_  120.0         1     4.160        3-1       4.16 /_  150.0         1
79 ..... 1       2.4018 /_    0.0         1     4.160        1-2       4.16 /_   30.0         1
   -     2       2.4018 /_ -120.0         1     4.160        2-3       4.16 /_  -90.0         1
   -     3       2.4018 /_  120.0         1     4.160        3-1       4.16 /_  150.0         1
80 ..... 1       2.4018 /_    0.0         1     4.160        1-2       4.16 /_   30.0         1
   -     2       2.4018 /_ -120.0         1     4.160        2-3       4.16 /_  -90.0         1
   -     3       2.4018 /_  120.0         1     4.160        3-1       4.16 /_  150.0         1
81 ..... 1       2.4018 /_    0.0         1     4.160        1-2       4.16 /_   30.0         1
   -     2       2.4018 /_ -120.0         1     4.160        2-3       4.16 /_  -90.0         1
   -     3       2.4018 /_  120.0         1     4.160        3-1       4.16 /_  150.0         1
82 ..... 1       2.4018 /_    0.0         1     4.160        1-2       4.16 /_   30.0         1
   -     2       2.4018 /_ -120.0         1     4.160        2-3       4.16 /_  -90.0         1
   -     3       2.4018 /_  120.0         1     4.160        3-1       4.16 /_  150.0         1
84 ..... 3       2.4018 /_  120.0         1     4.160
83 ..... 1       2.4018 /_    0.0         1     4.160        1-2       4.16 /_   30.0         1
   -     2       2.4018 /_ -120.0         1     4.160        2-3       4.16 /_  -90.0         1
   -     3       2.4018 /_  120.0         1     4.160        3-1       4.16 /_  150.0         1
85 ..... 3       2.4018 /_  120.0         1     4.160
87 ..... 1       2.4018 /_    0.0         1     4.160        1-2       4.16 /_   30.0         1
   -     2       2.4018 /_ -120.0         1     4.160        2-3       4.16 /_  -90.0         1
   -     3       2.4018 /_  120.0         1     4.160        3-1       4.16 /_  150.0         1
88 ..... 1       2.4018 /_    0.0         1     4.160
89 ..... 1       2.4018 /_    0.0         1     4.160        1-2       4.16 /_   30.0         1
   -     2       2.4018 /_ -120.0         1     4.160        2-3       4.16 /_  -90.0         1
   -     3       2.4018 /_  120.0         1     4.160        3-1       4.16 /_  150.0         1
90 ..... 2       2.4018 /_ -120.0         1     4.160
91 ..... 1       2.4018 /_    0.0         1     4.160        1-2       4.16 /_   30.0         1
   -     2       2.4018 /_ -120.0         1     4.160        2-3       4.16 /_  -90.0         1
   -     3       2.4018 /_  120.0         1     4.160        3-1       4.16 /_  150.0         1
92 ..... 3       2.4018 /_  120.0         1     4.160
93 ..... 1       2.4018 /_    0.0         1     4.160        1-2       4.16 /_   30.0         1
   -     2       2.4018 /_ -120.0         1     4.160        2-3       4.16 /_  -90.0         1
   -     3       2.4018 /_  120.0         1     4.160        3-1       4.16 /_  150.0         1
94 ..... 1       2.4018 /_    0.0         1     4.160
95 ..... 1       2.4018 /_    0.0         1     4.160        1-2       4.16 /_   30.0         1
   -     2       2.4018 /_ -120.0         1     4.160        2-3       4.16 /_  -90.0         1
   -     3       2.4018 /_  120.0         1     4.160        3-1       4.16 /_  150.0         1
96 ..... 2       2.4018 /_ -120.0         1     4.160
98 ..... 1       2.4018 /_    0.0         1     4.160        1-2       4.16 /_   30.0         1
   -     2       2.4018 /_ -120.0         1     4.160        2-3       4.16 /_  -90.0         1
   -     3       2.4018 /_  120.0         1     4.160        3-1       4.16 /_  150.0         1
99 ..... 1       2.4018 /_    0.0         1     4.160        1-2       4.16 /_   30.0         1
   -     2       2.4018 /_ -120.0         1     4.160        2-3       4.16 /_  -90.0         1
   -     3       2.4018 /_  120.0         1     4.160        3-1       4.16 /_  150.0         1
100 .... 1       2.4018 /_    0.0         1     4.160        1-2       4.16 /_   30.0         1
   -     2       2.4018 /_ -120.0         1     4.160        2-3       4.16 /_  -90.0         1
   -     3       2.4018 /_  120.0         1     4.160        3-1       4.16 /_  150.0         1
450 .... 1       2.4018 /_    0.0         1     4.160        1-2       4.16 /_   30.0         1
   -     2       2.4018 /_ -120.0         1     4.160        2-3       4.16 /_  -90.0         1
   -     3       2.4018 /_  120.0         1     4.160        3-1       4.16 /_  150.0         1
197 .... 1       2.4018 /_    0.0         1     4.160        1-2       4.16 /_   30.0         1
   -     2       2.4018 /_ -120.0         1     4.160        2-3       4.16 /_  -90.0         1
   -     3       2.4018 /_  120.0         1     4.160        3-1       4.16 /_  150.0         1
101 .... 1       2.4018 /_    0.0         1     4.160        1-2       4.16 /_   30.0         1
   -     2       2.4018 /_ -120.0         1     4.160        2-3       4.16 /_  -90.0         1
   -     3       2.4018 /_  120.0         1     4.160        3-1       4.16 /_  150.0         1
102 .... 3       2.4018 /_  120.0         1     4.160
105 .... 1       2.4018 /_    0.0         1     4.160        1-2       4.16 /_   30.0         1
   -     2       2.4018 /_ -120.0         1     4.160        2-3       4.16 /_  -90.0         1
   -     3       2.4018 /_  120.0         1     4.160        3-1       4.16 /_  150.0         1
103 .... 3       2.4018 /_  120.0         1     4.160
104 .... 3       2.4018 /_  120.0         1     4.160
106 .... 2       2.4018 /_ -120.0         1     4.160
108 .... 1       2.4018 /_    0.0         1     4.160        1-2       4.16 /_   30.0         1
   -     2       2.4018 /_ -120.0         1     4.160        2-3       4.16 /_  -90.0         1
   -     3       2.4018 /_  120.0         1     4.160        3-1       4.16 /_  150.0         1
107 .... 2       2.4018 /_ -120.0         1     4.160
109 .... 1       2.4018 /_    0.0         1     4.160
300 .... 1       2.4018 /_    0.0         1     4.160        1-2       4.16 /_   30.0         1
   -     2       2.4018 /_ -120.0         1     4.160        2-3       4.16 /_  -90.0         1
   -     3       2.4018 /_  120.0         1     4.160        3-1       4.16 /_  150.0         1
110 .... 1       2.4018 /_    0.0         1     4.160
111 .... 1       2.4018 /_    0.0         1     4.160
112 .... 1       2.4018 /_    0.0         1     4.160
113 .... 1       2.4018 /_    0.0         1     4.160
114 .... 1       2.4018 /_    0.0         1     4.160
135 .... 1       2.4018 /_    0.0         1     4.160        1-2       4.16 /_   30.0         1
   -     2       2.4018 /_ -120.0         1     4.160        2-3       4.16 /_  -90.0         1
   -     3       2.4018 /_  120.0         1     4.160        3-1       4.16 /_  150.0         1
152 .... 1       2.4018 /_    0.0         1     4.160        1-2       4.16 /_   30.0         1
   -     2       2.4018 /_ -120.0         1     4.160        2-3       4.16 /_  -90.0         1
   -     3       2.4018 /_  120.0         1     4.160        3-1       4.16 /_  150.0         1
160R ... 1       2.4018 /_    0.0         1     4.160        1-2       4.16 /_   30.0         1
   -     2       2.4018 /_ -120.0         1     4.160        2-3       4.16 /_  -90.0         1
   -     3       2.4018 /_  120.0         1     4.160        3-1       4.16 /_  150.0         1
160 .... 1       2.4018 /_    0.0         1     4.160        1-2       4.16 /_   30.0         1
   -     2       2.4018 /_ -120.0         1     4.160        2-3       4.16 /_  -90.0         1
   -     3       2.4018 /_  120.0         1     4.160        3-1       4.16 /_  150.0         1
61S .... 1       2.4018 /_    0.0         1     4.160        1-2       4.16 /_   30.0         1
   -     2       2.4018 /_ -120.0         1     4.160        2-3       4.16 /_  -90.0         1
   -     3       2.4018 /_  120.0         1     4.160        3-1       4.16 /_  150.0         1
300_OPEN 1       2.4018 /_    0.0         1     4.160        1-2       4.16 /_   30.0         1
   -     2       2.4018 /_ -120.0         1     4.160        2-3       4.16 /_  -90.0         1
   -     3       2.4018 /_  120.0         1     4.160        3-1       4.16 /_  150.0         1
94_OPEN  1       2.4018 /_    0.0         1     4.160        1-2       4.16 /_   30.0         1
   -     2       2.4018 /_ -120.0         1     4.160        2-3       4.16 /_  -90.0         1
   -     3       2.4018 /_  120.0         1     4.160        3-1       4.16 /_  150.0         1
610 .... 1      0.27713 /_    0.0         1     0.480        1-2       0.48 /_   30.0         1
   -     2      0.27713 /_ -120.0         1     0.480        2-3       0.48 /_  -90.0         1
   -     3      0.27713 /_  120.0         1     0.480        3-1       0.48 /_  150.0         1
